Alanine (Ala)
  -ISIS-  09270916452D

  6  5  0  0  0  0  0  0  0  0999 V2000
    5.9024   -4.4368    0.0000 N   0  0  0  0  0  0  0  0  0  0  0  0
    5.9102   -3.6333    0.0000 C   0  0  2  0  0  0  0  0  0  0  0  0
    6.6954   -3.3531    0.0000 C   0  0  0  0  0  0  0  0  0  0  0  0
    6.6954   -2.5256    0.0000 O   0  0  0  0  0  0  0  0  0  0  0  0
    5.2254   -3.1657    0.0000 C   0  0  0  0  0  0  0  0  0  0  0  0
    7.3697   -3.8285    0.0000 O   0  0  0  0  0  0  0  0  0  0  0  0
  2  1  1  0  0  0  0
  2  3  1  0  0  0  0
  3  4  2  0  0  0  0
  2  5  1  1  0  0  0
  3  6  1  0  0  0  0
M  END
