Cysteine (Cys)
  -ISIS-  09270916452D

  7  6  0  0  0  0  0  0  0  0999 V2000
    6.2733   -4.4534    0.0000 N   0  0  0  0  0  0  0  0  0  0  0  0
    6.2438   -3.5958    0.0000 C   0  0  2  0  0  0  0  0  0  0  0  0
    7.0207   -3.3242    0.0000 C   0  0  0  0  0  0  0  0  0  0  0  0
    7.0207   -2.5049    0.0000 O   0  0  0  0  0  0  0  0  0  0  0  0
    5.5631   -3.1324    0.0000 C   0  0  0  0  0  0  0  0  0  0  0  0
    4.9043   -3.6135    0.0000 S   0  0  0  0  0  0  0  0  0  0  0  0
    7.6934   -3.8017    0.0000 O   0  0  0  0  0  0  0  0  0  0  0  0
  2  1  1  0  0  0  0
  2  3  1  0  0  0  0
  3  4  2  0  0  0  0
  5  6  1  0  0  0  0
  2  5  1  1  0  0  0
  3  7  1  0  0  0  0
M  END
