Aspartic Acid (Asp)
  -ISIS-  09270916462D

  9  8  0  0  0  0  0  0  0  0999 V2000
    6.6865   -4.5193    0.0000 N   0  0  0  0  0  0  0  0  0  0  0  0
    6.6931   -3.6230    0.0000 C   0  0  2  0  0  0  0  0  0  0  0  0
    7.4272   -3.2562    0.0000 C   0  0  0  0  0  0  0  0  0  0  0  0
    7.4272   -2.4411    0.0000 O   0  0  0  0  0  0  0  0  0  0  0  0
    5.9633   -3.2515    0.0000 C   0  0  0  0  0  0  0  0  0  0  0  0
    5.2804   -3.7011    0.0000 C   0  0  0  0  0  0  0  0  0  0  0  0
    4.5227   -3.3316    0.0000 O   0  0  0  0  0  0  0  0  0  0  0  0
    5.2759   -4.4713    0.0000 O   0  0  0  0  0  0  0  0  0  0  0  0
    8.1290   -3.6901    0.0000 O   0  0  0  0  0  0  0  0  0  0  0  0
  2  1  1  0  0  0  0
  2  3  1  0  0  0  0
  3  4  2  0  0  0  0
  2  5  1  1  0  0  0
  6  7  2  0  0  0  0
  6  8  1  0  0  0  0
  5  6  1  0  0  0  0
  3  9  1  0  0  0  0
M  END
