Glutamic Acid (Glu)
  -ISIS-  09270916462D

 10  9  0  0  0  0  0  0  0  0999 V2000
    7.0073   -4.7085    0.0000 N   0  0  0  0  0  0  0  0  0  0  0  0
    6.9778   -3.8605    0.0000 C   0  0  2  0  0  0  0  0  0  0  0  0
    7.7456   -3.5865    0.0000 C   0  0  0  0  0  0  0  0  0  0  0  0
    7.7456   -2.7727    0.0000 O   0  0  0  0  0  0  0  0  0  0  0  0
    6.3056   -3.4003    0.0000 C   0  0  0  0  0  0  0  0  0  0  0  0
    5.5333   -3.6774    0.0000 C   0  0  0  0  0  0  0  0  0  0  0  0
    5.0185   -3.0423    0.0000 C   0  0  0  0  0  0  0  0  0  0  0  0
    5.3039   -2.2541    0.0000 O   0  0  0  0  0  0  0  0  0  0  0  0
    4.2085   -3.1791    0.0000 O   0  0  0  0  0  0  0  0  0  0  0  0
    8.4199   -4.0618    0.0000 O   0  0  0  0  0  0  0  0  0  0  0  0
  2  1  1  0  0  0  0
  2  3  1  0  0  0  0
  3  4  2  0  0  0  0
  2  5  1  1  0  0  0
  6  5  1  0  0  0  0
  7  8  2  0  0  0  0
  6  7  1  0  0  0  0
  7  9  1  0  0  0  0
  3 10  1  0  0  0  0
M  END
