Phenylalanine (Phe)
  -ISIS-  09270916462D

 12 12  0  0  0  0  0  0  0  0999 V2000
    6.9585   -4.3256    0.0000 N   0  0  0  0  0  0  0  0  0  0  0  0
    6.9609   -3.5033    0.0000 C   0  0  1  0  0  0  0  0  0  0  0  0
    6.3236   -2.9567    0.0000 C   0  0  0  0  0  0  0  0  0  0  0  0
    7.7566   -2.4717    0.0000 O   0  0  0  0  0  0  0  0  0  0  0  0
    7.7461   -3.2232    0.0000 C   0  0  0  0  0  0  0  0  0  0  0  0
    5.6067   -3.3767    0.0000 C   0  0  0  0  0  0  0  0  0  0  0  0
    5.6067   -4.2083    0.0000 C   0  0  0  0  0  0  0  0  0  0  0  0
    4.8896   -4.6241    0.0000 C   0  0  0  0  0  0  0  0  0  0  0  0
    4.1643   -4.2083    0.0000 C   0  0  0  0  0  0  0  0  0  0  0  0
    4.1643   -3.3767    0.0000 C   0  0  0  0  0  0  0  0  0  0  0  0
    4.8896   -2.9566    0.0000 C   0  0  0  0  0  0  0  0  0  0  0  0
    8.4170   -3.7033    0.0000 O   0  0  0  0  0  0  0  0  0  0  0  0
  2  3  1  1  0  0  0
  4  5  2  0  0  0  0
  5  2  1  0  0  0  0
  2  1  1  0  0  0  0
  6  7  1  0  0  0  0
  7  8  2  0  0  0  0
  8  9  1  0  0  0  0
  9 10  2  0  0  0  0
 10 11  1  0  0  0  0
 11  6  2  0  0  0  0
  3  6  1  0  0  0  0
  5 12  1  0  0  0  0
M  END
