Glycine (Gly)
  -ISIS-  09270916472D

  5  4  0  0  0  0  0  0  0  0999 V2000
    5.5828   -4.4490    0.0000 N   0  0  0  0  0  0  0  0  0  0  0  0
    5.5907   -3.5874    0.0000 C   0  0  0  0  0  0  0  0  0  0  0  0
    6.3510   -3.3157    0.0000 C   0  0  0  0  0  0  0  0  0  0  0  0
    6.3510   -2.5134    0.0000 O   0  0  0  0  0  0  0  0  0  0  0  0
    7.0254   -3.7909    0.0000 O   0  0  0  0  0  0  0  0  0  0  0  0
  1  2  1  0  0  0  0
  2  3  1  0  0  0  0
  3  4  2  0  0  0  0
  3  5  1  0  0  0  0
M  END
