Histidine (His)
  -ISIS-  09270916472D

 11 11  0  0  0  0  0  0  0  0999 V2000
    6.8593   -4.3411    0.0000 N   0  0  0  0  0  0  0  0  0  0  0  0
    6.8714   -3.4671    0.0000 C   0  0  2  0  0  0  0  0  0  0  0  0
    7.6442   -3.1955    0.0000 C   0  0  0  0  0  0  0  0  0  0  0  0
    7.6442   -2.3806    0.0000 O   0  0  0  0  0  0  0  0  0  0  0  0
    6.2033   -3.0077    0.0000 C   0  0  0  0  0  0  0  0  0  0  0  0
    5.5403   -3.4931    0.0000 C   0  0  0  0  0  0  0  0  0  0  0  0
    4.7555   -3.2421    0.0000 N   0  0  0  0  0  0  0  0  0  0  0  0
    5.5402   -4.3159    0.0000 C   0  0  0  0  0  0  0  0  0  0  0  0
    4.2765   -3.9294    0.0000 C   0  0  0  0  0  0  0  0  0  0  0  0
    4.7577   -4.5776    0.0000 N   0  0  0  0  0  0  0  0  0  0  0  0
    8.3174   -3.6725    0.0000 O   0  0  0  0  0  0  0  0  0  0  0  0
  2  1  1  0  0  0  0
  2  3  1  0  0  0  0
  3  4  2  0  0  0  0
  2  5  1  1  0  0  0
  6  7  1  0  0  0  0
  6  8  2  0  0  0  0
  7  9  2  0  0  0  0
  8 10  1  0  0  0  0
  9 10  1  0  0  0  0
  5  6  1  0  0  0  0
  3 11  1  0  0  0  0
M  END
