Isoleucine (Ile)
  -ISIS-  09270916482D

  9  8  0  0  0  0  0  0  0  0999 V2000
    6.6953   -4.5125    0.0000 N   0  0  0  0  0  0  0  0  0  0  0  0
    6.6953   -3.6850    0.0000 C   0  0  1  0  0  0  0  0  0  0  0  0
    5.9784   -3.2693    0.0000 C   0  0  2  0  0  0  0  0  0  0  0  0
    5.2613   -3.6850    0.0000 C   0  0  0  0  0  0  0  0  0  0  0  0
    7.4164   -2.4459    0.0000 O   0  0  0  0  0  0  0  0  0  0  0  0
    7.4164   -3.2692    0.0000 C   0  0  0  0  0  0  0  0  0  0  0  0
    4.5086   -3.3461    0.0000 C   0  0  0  0  0  0  0  0  0  0  0  0
    5.9783   -2.4459    0.0000 C   0  0  0  0  0  0  0  0  0  0  0  0
    8.1307   -3.6819    0.0000 O   0  0  0  0  0  0  0  0  0  0  0  0
  2  3  1  1  0  0  0
  3  4  1  0  0  0  0
  5  6  2  0  0  0  0
  6  2  1  0  0  0  0
  2  1  1  0  0  0  0
  4  7  1  0  0  0  0
  3  8  1  6  0  0  0
  6  9  1  0  0  0  0
M  END
