Lysine (Lys)
  -ISIS-  09270916492D

 10  9  0  0  0  0  0  0  0  0999 V2000
    7.2429   -4.4951    0.0000 N   0  0  0  0  0  0  0  0  0  0  0  0
    7.2176   -3.6390    0.0000 C   0  0  2  0  0  0  0  0  0  0  0  0
    7.9894   -3.3649    0.0000 C   0  0  0  0  0  0  0  0  0  0  0  0
    7.9894   -2.5511    0.0000 O   0  0  0  0  0  0  0  0  0  0  0  0
    6.5412   -3.1787    0.0000 C   0  0  0  0  0  0  0  0  0  0  0  0
    5.7606   -3.4559    0.0000 C   0  0  0  0  0  0  0  0  0  0  0  0
    5.2417   -2.8206    0.0000 C   0  0  0  0  0  0  0  0  0  0  0  0
    4.4711   -3.0984    0.0000 C   0  0  0  0  0  0  0  0  0  0  0  0
    3.9481   -2.4631    0.0000 N   0  0  0  0  0  0  0  0  0  0  0  0
    8.6633   -3.8408    0.0000 O   0  0  0  0  0  0  0  0  0  0  0  0
  2  1  1  0  0  0  0
  2  3  1  0  0  0  0
  3  4  2  0  0  0  0
  2  5  1  1  0  0  0
  6  5  1  0  0  0  0
  7  8  1  0  0  0  0
  6  7  1  0  0  0  0
  8  9  1  0  0  0  0
  3 10  1  0  0  0  0
M  END
