Leucine (Leu)
  -ISIS-  11171012512D

  9  8  0  0  0  0  0  0  0  0999 V2000
    6.6952   -5.6750    0.0000 N   0  0  0  0  0  0  0  0  0  0  0  0
    6.6952   -4.8516    0.0000 C   0  0  1  0  0  0  0  0  0  0  0  0
    5.9783   -4.4400    0.0000 C   0  0  0  0  0  0  0  0  0  0  0  0
    5.2696   -4.8515    0.0000 C   0  0  3  0  0  0  0  0  0  0  0  0
    7.4081   -3.6208    0.0000 O   0  0  0  0  0  0  0  0  0  0  0  0
    7.4081   -4.4399    0.0000 C   0  0  0  0  0  0  0  0  0  0  0  0
    4.5169   -4.5125    0.0000 C   0  0  0  0  0  0  0  0  0  0  0  0
    5.1792   -5.6705    0.0000 C   0  0  0  0  0  0  0  0  0  0  0  0
    8.1226   -4.8524    0.0000 O   0  0  0  0  0  0  0  0  0  0  0  0
  2  3  1  1  0  0  0
  3  4  1  0  0  0  0
  5  6  2  0  0  0  0
  6  2  1  0  0  0  0
  2  1  1  0  0  0  0
  4  7  1  0  0  0  0
  8  4  1  0  0  0  0
  6  9  1  0  0  0  0
M  END
