Methionine (Met)
  -ISIS-  11171012422D

  9  8  0  0  0  0  0  0  0  0999 V2000
    6.9439   -5.6054    0.0000 N   0  0  0  0  0  0  0  0  0  0  0  0
    6.9603   -4.7992    0.0000 C   0  0  2  0  0  0  0  0  0  0  0  0
    7.7404   -4.5210    0.0000 C   0  0  0  0  0  0  0  0  0  0  0  0
    7.7404   -3.6989    0.0000 O   0  0  0  0  0  0  0  0  0  0  0  0
    6.2756   -4.3306    0.0000 C   0  0  0  0  0  0  0  0  0  0  0  0
    5.4908   -4.6120    0.0000 C   0  0  0  0  0  0  0  0  0  0  0  0
    4.9677   -3.9725    0.0000 S   0  0  0  0  0  0  0  0  0  0  0  0
    4.1847   -4.2461    0.0000 C   0  0  0  0  0  0  0  0  0  0  0  0
    8.4146   -4.9964    0.0000 O   0  0  0  0  0  0  0  0  0  0  0  0
  2  1  1  0  0  0  0
  2  3  1  0  0  0  0
  3  4  2  0  0  0  0
  2  5  1  1  0  0  0
  6  5  1  0  0  0  0
  7  8  1  0  0  0  0
  6  7  1  0  0  0  0
  3  9  1  0  0  0  0
M  END
