Asparagine (Asn)
  -ISIS-  11171012422D

  9  8  0  0  0  0  0  0  0  0999 V2000
    6.6949   -5.6860    0.0000 N   0  0  0  0  0  0  0  0  0  0  0  0
    6.6931   -4.7980    0.0000 C   0  0  2  0  0  0  0  0  0  0  0  0
    7.4231   -4.4312    0.0000 C   0  0  0  0  0  0  0  0  0  0  0  0
    7.4231   -3.6203    0.0000 O   0  0  0  0  0  0  0  0  0  0  0  0
    5.9675   -4.4265    0.0000 C   0  0  0  0  0  0  0  0  0  0  0  0
    5.2888   -4.8720    0.0000 C   0  0  0  0  0  0  0  0  0  0  0  0
    4.5311   -4.5067    0.0000 O   0  0  0  0  0  0  0  0  0  0  0  0
    5.3217   -5.6589    0.0000 N   0  0  0  0  0  0  0  0  0  0  0  0
    8.1253   -4.8642    0.0000 O   0  0  0  0  0  0  0  0  0  0  0  0
  2  1  1  0  0  0  0
  2  3  1  0  0  0  0
  3  4  2  0  0  0  0
  2  5  1  1  0  0  0
  6  7  2  0  0  0  0
  6  8  1  0  0  0  0
  5  6  1  0  0  0  0
  3  9  1  0  0  0  0
M  END
