Proline (Pro)
  -ISIS-  11171012422D

  8  8  0  0  0  0  0  0  0  0999 V2000
    6.1874   -5.6738    0.0000 N   0  0  0  0  0  0  0  0  0  0  0  0
    6.2506   -4.8561    0.0000 C   0  0  1  0  0  0  0  0  0  0  0  0
    5.3829   -5.8517    0.0000 C   0  0  0  0  0  0  0  0  0  0  0  0
    5.4974   -4.5266    0.0000 C   0  0  0  0  0  0  0  0  0  0  0  0
    4.9696   -5.1298    0.0000 C   0  0  0  0  0  0  0  0  0  0  0  0
    6.9554   -4.4359    0.0000 C   0  0  0  0  0  0  0  0  0  0  0  0
    6.9554   -3.5858    0.0000 O   0  0  0  0  0  0  0  0  0  0  0  0
    7.6728   -4.8433    0.0000 O   0  0  0  0  0  0  0  0  0  0  0  0
  2  1  1  0  0  0  0
  1  3  1  0  0  0  0
  2  4  1  1  0  0  0
  3  5  1  0  0  0  0
  4  5  1  0  0  0  0
  6  7  2  0  0  0  0
  2  6  1  0  0  0  0
  6  8  1  0  0  0  0
M  END
