Glutamine (Gln)	
  -ISIS-  11171012432D

 10  9  0  0  0  0  0  0  0  0999 V2000
    6.9699   -5.8584    0.0000 N   0  0  0  0  0  0  0  0  0  0  0  0
    6.9821   -5.0688    0.0000 C   0  0  2  0  0  0  0  0  0  0  0  0
    7.7581   -4.7906    0.0000 C   0  0  0  0  0  0  0  0  0  0  0  0
    7.7581   -3.9685    0.0000 O   0  0  0  0  0  0  0  0  0  0  0  0
    6.3015   -4.6002    0.0000 C   0  0  0  0  0  0  0  0  0  0  0  0
    5.5208   -4.8815    0.0000 C   0  0  0  0  0  0  0  0  0  0  0  0
    4.9977   -4.2422    0.0000 C   0  0  0  0  0  0  0  0  0  0  0  0
    5.2873   -3.4415    0.0000 O   0  0  0  0  0  0  0  0  0  0  0  0
    4.1794   -4.3791    0.0000 N   0  0  0  0  0  0  0  0  0  0  0  0
    8.4327   -5.2655    0.0000 O   0  0  0  0  0  0  0  0  0  0  0  0
  2  1  1  0  0  0  0
  2  3  1  0  0  0  0
  3  4  2  0  0  0  0
  2  5  1  1  0  0  0
  6  5  1  0  0  0  0
  7  8  2  0  0  0  0
  6  7  1  0  0  0  0
  7  9  1  0  0  0  0
  3 10  1  0  0  0  0
M  END
