Arginine (Arg)
  -ISIS-  11171012432D

 12 11  0  0  0  0  0  0  0  0999 V2000
    7.5986   -6.1474    0.0000 N   0  0  0  0  0  0  0  0  0  0  0  0
    7.5691   -5.2911    0.0000 C   0  0  2  0  0  0  0  0  0  0  0  0
    8.3410   -5.0171    0.0000 C   0  0  0  0  0  0  0  0  0  0  0  0
    8.3410   -4.1991    0.0000 O   0  0  0  0  0  0  0  0  0  0  0  0
    6.8927   -4.8308    0.0000 C   0  0  0  0  0  0  0  0  0  0  0  0
    6.1162   -5.1080    0.0000 C   0  0  0  0  0  0  0  0  0  0  0  0
    5.5932   -4.4727    0.0000 C   0  0  0  0  0  0  0  0  0  0  0  0
    4.7915   -4.6097    0.0000 N   0  0  0  0  0  0  0  0  0  0  0  0
    4.3883   -3.8892    0.0000 C   0  0  0  0  0  0  0  0  0  0  0  0
    4.8152   -3.1569    0.0000 N   0  0  0  0  0  0  0  0  0  0  0  0
    3.5965   -3.8677    0.0000 N   0  0  0  0  0  0  0  0  0  0  0  0
    9.0149   -5.4930    0.0000 O   0  0  0  0  0  0  0  0  0  0  0  0
  2  1  1  0  0  0  0
  2  3  1  0  0  0  0
  3  4  2  0  0  0  0
  2  5  1  1  0  0  0
  6  5  1  0  0  0  0
  6  7  1  0  0  0  0
  7  8  1  0  0  0  0
  9 10  2  0  0  0  0
  9 11  1  0  0  0  0
  8  9  1  0  0  0  0
  3 12  1  0  0  0  0
M  END
