Serine (Ser)
  -ISIS-  11171012442D

  7  6  0  0  0  0  0  0  0  0999 V2000
    6.3294   -5.6835    0.0000 N   0  0  0  0  0  0  0  0  0  0  0  0
    6.3294   -4.8558    0.0000 C   0  0  1  0  0  0  0  0  0  0  0  0
    5.6167   -4.4401    0.0000 C   0  0  0  0  0  0  0  0  0  0  0  0
    4.8993   -4.8558    0.0000 O   0  0  0  0  0  0  0  0  0  0  0  0
    7.0507   -3.6164    0.0000 O   0  0  0  0  0  0  0  0  0  0  0  0
    7.0507   -4.4400    0.0000 C   0  0  0  0  0  0  0  0  0  0  0  0
    7.7650   -4.8528    0.0000 O   0  0  0  0  0  0  0  0  0  0  0  0
  2  3  1  1  0  0  0
  3  4  1  0  0  0  0
  5  6  2  0  0  0  0
  6  2  1  0  0  0  0
  2  1  1  0  0  0  0
  6  7  1  0  0  0  0
M  END
