Threonine (Thr)
  -ISIS-  11171012442D

  8  7  0  0  0  0  0  0  0  0999 V2000
    6.3629   -5.6826    0.0000 N   0  0  0  0  0  0  0  0  0  0  0  0
    6.3357   -4.8726    0.0000 C   0  0  2  0  0  0  0  0  0  0  0  0
    7.0955   -4.5487    0.0000 C   0  0  0  0  0  0  0  0  0  0  0  0
    7.0471   -3.7279    0.0000 O   0  0  0  0  0  0  0  0  0  0  0  0
    5.6187   -4.4500    0.0000 C   0  0  1  0  0  0  0  0  0  0  0  0
    4.8545   -4.7774    0.0000 C   0  0  0  0  0  0  0  0  0  0  0  0
    5.6820   -3.6196    0.0000 O   0  0  0  0  0  0  0  0  0  0  0  0
    7.7969   -4.9831    0.0000 O   0  0  0  0  0  0  0  0  0  0  0  0
  2  1  1  0  0  0  0
  2  3  1  0  0  0  0
  3  4  2  0  0  0  0
  2  5  1  1  0  0  0
  6  5  1  0  0  0  0
  5  7  1  1  0  0  0
  3  8  1  0  0  0  0
M  END
