Valine (Val)
  -ISIS-  11171012452D

  8  7  0  0  0  0  0  0  0  0999 V2000
    6.3169   -5.6833    0.0000 N   0  0  0  0  0  0  0  0  0  0  0  0
    6.3169   -4.8558    0.0000 C   0  0  1  0  0  0  0  0  0  0  0  0
    5.6042   -4.4401    0.0000 C   0  0  3  0  0  0  0  0  0  0  0  0
    4.8870   -4.8558    0.0000 C   0  0  0  0  0  0  0  0  0  0  0  0
    7.0380   -3.6166    0.0000 O   0  0  0  0  0  0  0  0  0  0  0  0
    7.0380   -4.4400    0.0000 C   0  0  0  0  0  0  0  0  0  0  0  0
    5.6041   -3.6166    0.0000 C   0  0  0  0  0  0  0  0  0  0  0  0
    7.7523   -4.8527    0.0000 O   0  0  0  0  0  0  0  0  0  0  0  0
  2  3  1  1  0  0  0
  3  4  1  0  0  0  0
  5  6  2  0  0  0  0
  6  2  1  0  0  0  0
  2  1  1  0  0  0  0
  3  7  1  0  0  0  0
  6  8  1  0  0  0  0
M  END
