Tryptophan (Trp)
  -ISIS-  11171012452D

 15 16  0  0  0  0  0  0  0  0999 V2000
    7.5097   -5.4526    0.0000 N   0  0  0  0  0  0  0  0  0  0  0  0
    7.5097   -4.6340    0.0000 C   0  0  1  0  0  0  0  0  0  0  0  0
    6.7957   -4.2246    0.0000 C   0  0  0  0  0  0  0  0  0  0  0  0
    8.2155   -3.4102    0.0000 O   0  0  0  0  0  0  0  0  0  0  0  0
    8.2155   -4.2247    0.0000 C   0  0  0  0  0  0  0  0  0  0  0  0
    6.1768   -4.7543    0.0000 C   0  0  0  0  0  0  0  0  0  0  0  0
    5.3750   -4.5674    0.0000 C   0  0  0  0  0  0  0  0  0  0  0  0
    6.2364   -5.5708    0.0000 C   0  0  0  0  0  0  0  0  0  0  0  0
    4.9558   -5.2909    0.0000 C   0  0  0  0  0  0  0  0  0  0  0  0
    5.4751   -5.8940    0.0000 N   0  0  0  0  0  0  0  0  0  0  0  0
    4.1231   -5.2816    0.0000 C   0  0  0  0  0  0  0  0  0  0  0  0
    3.7095   -4.5528    0.0000 C   0  0  0  0  0  0  0  0  0  0  0  0
    4.1372   -3.8294    0.0000 C   0  0  0  0  0  0  0  0  0  0  0  0
    4.9699   -3.8388    0.0000 C   0  0  0  0  0  0  0  0  0  0  0  0
    8.9303   -4.6365    0.0000 O   0  0  0  0  0  0  0  0  0  0  0  0
  2  3  1  1  0  0  0
  4  5  2  0  0  0  0
  5  2  1  0  0  0  0
  2  1  1  0  0  0  0
  6  7  1  0  0  0  0
  6  8  2  0  0  0  0
  7  9  2  0  0  0  0
  8 10  1  0  0  0  0
  9 10  1  0  0  0  0
  3  6  1  0  0  0  0
  9 11  1  0  0  0  0
 11 12  2  0  0  0  0
 12 13  1  0  0  0  0
 13 14  2  0  0  0  0
 14  7  1  0  0  0  0
  5 15  1  0  0  0  0
M  END
