3-(2-naphthyl)alanine (2Nala)
  -ISIS-  11171012452D

 16 17  0  0  0  0  0  0  0  0999 V2000
    7.3210   -4.8672    0.0000 N   0  0  0  0  0  0  0  0  0  0  0  0
    7.3233   -4.0449    0.0000 C   0  0  1  0  0  0  0  0  0  0  0  0
    6.6902   -3.5025    0.0000 C   0  0  0  0  0  0  0  0  0  0  0  0
    8.1190   -3.0133    0.0000 O   0  0  0  0  0  0  0  0  0  0  0  0
    8.1086   -3.7648    0.0000 C   0  0  0  0  0  0  0  0  0  0  0  0
    5.9691   -3.9184    0.0000 C   0  0  0  0  0  0  0  0  0  0  0  0
    5.9691   -4.7499    0.0000 C   0  0  0  0  0  0  0  0  0  0  0  0
    4.5267   -3.9184    0.0000 C   0  0  0  0  0  0  0  0  0  0  0  0
    5.2521   -3.5024    0.0000 C   0  0  0  0  0  0  0  0  0  0  0  0
    5.2568   -5.1643    0.0000 C   0  0  0  0  0  0  0  0  0  0  0  0
    4.5267   -4.7499    0.0000 C   0  0  0  0  0  0  0  0  0  0  0  0
    3.8050   -5.1749    0.0000 C   0  0  0  0  0  0  0  0  0  0  0  0
    3.8121   -6.0142    0.0000 C   0  0  0  0  0  0  0  0  0  0  0  0
    4.5470   -6.4265    0.0000 C   0  0  0  0  0  0  0  0  0  0  0  0
    5.2657   -5.9992    0.0000 C   0  0  0  0  0  0  0  0  0  0  0  0
    8.7796   -4.2449    0.0000 O   0  0  0  0  0  0  0  0  0  0  0  0
  7 10  2  0  0  0  0
 11  8  2  0  0  0  0
  8  9  1  0  0  0  0
  9  6  2  0  0  0  0
  3  6  1  0  0  0  0
  2  3  1  1  0  0  0
 10 11  1  0  0  0  0
  4  5  2  0  0  0  0
 11 12  1  0  0  0  0
  5  2  1  0  0  0  0
 12 13  2  0  0  0  0
  2  1  1  0  0  0  0
 13 14  1  0  0  0  0
  6  7  1  0  0  0  0
 14 15  2  0  0  0  0
 15 10  1  0  0  0  0
  5 16  1  0  0  0  0
M  END
