Ornithine (Orn)
  -ISIS-  11171012462D

  9  8  0  0  0  0  0  0  0  0999 V2000
    6.9804   -5.6243    0.0000 N   0  0  0  0  0  0  0  0  0  0  0  0
    6.9550   -4.7682    0.0000 C   0  0  2  0  0  0  0  0  0  0  0  0
    7.7268   -4.4941    0.0000 C   0  0  0  0  0  0  0  0  0  0  0  0
    7.7268   -3.6803    0.0000 O   0  0  0  0  0  0  0  0  0  0  0  0
    6.2787   -4.3079    0.0000 C   0  0  0  0  0  0  0  0  0  0  0  0
    5.4981   -4.5851    0.0000 C   0  0  0  0  0  0  0  0  0  0  0  0
    4.9791   -3.9498    0.0000 C   0  0  0  0  0  0  0  0  0  0  0  0
    4.2086   -4.2276    0.0000 N   0  0  0  0  0  0  0  0  0  0  0  0
    8.4008   -4.9699    0.0000 O   0  0  0  0  0  0  0  0  0  0  0  0
  2  1  1  0  0  0  0
  2  3  1  0  0  0  0
  3  4  2  0  0  0  0
  2  5  1  1  0  0  0
  6  5  1  0  0  0  0
  7  8  1  0  0  0  0
  6  7  1  0  0  0  0
  3  9  1  0  0  0  0
M  END
