Homoarginine (Hag)
  -ISIS-  11171012462D

 14 13  0  0  0  0  0  0  0  0999 V2000
    8.3611   -6.2599    0.0000 N   0  0  0  0  0  0  0  0  0  0  0  0
    8.3357   -5.4036    0.0000 C   0  0  2  0  0  0  0  0  0  0  0  0
    9.1035   -5.1296    0.0000 C   0  0  0  0  0  0  0  0  0  0  0  0
    9.1035   -4.3116    0.0000 O   0  0  0  0  0  0  0  0  0  0  0  0
    7.6552   -4.9433    0.0000 C   0  0  0  0  0  0  0  0  0  0  0  0
    6.8787   -5.2205    0.0000 C   0  0  0  0  0  0  0  0  0  0  0  0
    6.2500   -4.6862    0.0000 C   0  0  0  0  0  0  0  0  0  0  0  0
    5.4730   -4.9635    0.0000 C   0  0  0  0  0  0  0  0  0  0  0  0
    4.8265   -4.3560    0.0000 C   0  0  0  0  0  0  0  0  0  0  0  0
    4.0249   -4.4930    0.0000 N   0  0  0  0  0  0  0  0  0  0  0  0
    3.6216   -3.7725    0.0000 C   0  0  0  0  0  0  0  0  0  0  0  0
    4.0486   -3.0402    0.0000 N   0  0  0  0  0  0  0  0  0  0  0  0
    2.8299   -3.7510    0.0000 N   0  0  0  0  0  0  0  0  0  0  0  0
    9.7778   -5.6049    0.0000 O   0  0  0  0  0  0  0  0  0  0  0  0
  6  7  1  0  0  0  0
  2  1  1  0  0  0  0
  7  8  1  0  0  0  0
  2  3  1  0  0  0  0
  3  4  2  0  0  0  0
  2  5  1  1  0  0  0
  6  5  1  0  0  0  0
  9 10  1  0  0  0  0
 11 12  2  0  0  0  0
 11 13  1  0  0  0  0
 10 11  1  0  0  0  0
  8  9  1  0  0  0  0
  3 14  1  0  0  0  0
M  END
