Tyrosine (Tyr)
  -ISIS-  11171012412D

 13 13  0  0  0  0  0  0  0  0999 V2000
    3.0880   -2.7672    0.0000 N   0  0  0  0  0  0  0  0  0  0  0  0
    3.0860   -1.9114    0.0000 C   0  0  1  0  0  0  0  0  0  0  0  0
    2.4571   -1.3733    0.0000 C   0  0  0  0  0  0  0  0  0  0  0  0
    3.8775   -0.8422    0.0000 O   0  0  0  0  0  0  0  0  0  0  0  0
    3.8629   -1.6354    0.0000 C   0  0  0  0  0  0  0  0  0  0  0  0
    1.7443   -1.7850    0.0000 C   0  0  0  0  0  0  0  0  0  0  0  0
    1.7443   -2.6125    0.0000 C   0  0  0  0  0  0  0  0  0  0  0  0
    1.0315   -3.0243    0.0000 C   0  0  0  0  0  0  0  0  0  0  0  0
    0.3228   -2.6085    0.0000 C   0  0  0  0  0  0  0  0  0  0  0  0
    0.3227   -1.7852    0.0000 C   0  0  0  0  0  0  0  0  0  0  0  0
    1.0313   -1.3734    0.0000 C   0  0  0  0  0  0  0  0  0  0  0  0
   -0.3942   -3.0244    0.0000 O   0  0  0  0  0  0  0  0  0  0  0  0
    4.5325   -2.1174    0.0000 O   0  0  0  0  0  0  0  0  0  0  0  0
  2  3  1  1  0  0  0
  4  5  2  0  0  0  0
  5  2  1  0  0  0  0
  2  1  1  0  0  0  0
  6  7  1  0  0  0  0
  7  8  2  0  0  0  0
  8  9  1  0  0  0  0
  9 10  2  0  0  0  0
 10 11  1  0  0  0  0
 11  6  2  0  0  0  0
  3  6  1  0  0  0  0
  9 12  1  0  0  0  0
  5 13  1  0  0  0  0
M  END
